data_image0
_publ_author   Andrea Dar√π
_publ_DOI   10.1002/adma.202414617
_chemical_formula_structural       In3H66C132O24Na3
_chemical_formula_sum              "In3 H66 C132 O24 Na3"
_cell_length_a       16.051553691016803
_cell_length_b       15.989797438611363
_cell_length_c       47.627788320515485
_cell_angle_alpha    88.26212348264222
_cell_angle_beta     91.71775096780989
_cell_angle_gamma    120.59279914005351

_space_group_name_H-M_alt    "P 1"
_space_group_IT_number       1

loop_
  _space_group_symop_operation_xyz
  'x, y, z'

loop_
  _atom_site_type_symbol
  _atom_site_label
  _atom_site_symmetry_multiplicity
  _atom_site_fract_x
  _atom_site_fract_y
  _atom_site_fract_z
  _atom_site_occupancy
  In  In1       1.0  0.992674261161311  0.0016401715762257988  0.0615113751200939  1.0000
  In  In2       1.0  0.9969720805420605  0.9809224196714796  0.3948805327944004  1.0000
  In  In3       1.0  0.027140884126017183  0.9969290360471917  0.726949333936433  1.0000
  H   H1        1.0  0.4246695793349609  0.4219006540977167  0.8247858504087489  1.0000
  H   H2        1.0  0.5814115766118774  0.5729420190790643  0.8243496698700871  1.0000
  H   H3        1.0  0.800504708272056  0.784678515995042  0.8951402967457471  1.0000
  H   H4        1.0  0.5864138251627009  0.5762043773355016  0.9673758318467703  1.0000
  H   H5        1.0  0.42877617234633264  0.4265674847633945  0.9678747003422332  1.0000
  H   H6        1.0  0.2056389418746598  0.21898647849476088  0.8968782509191935  1.0000
  H   H7        1.0  0.14507365802645716  0.28611934600437805  0.8508245959852084  1.0000
  H   H8        1.0  0.38346124768360906  0.24550093090269456  0.8331591784957174  1.0000
  H   H9        1.0  0.06004255527546059  0.19770269059117648  0.8072260865890468  1.0000
  H   H10       1.0  0.29592915439844564  0.15345548249373228  0.7901674408150833  1.0000
  H   H11       1.0  0.38446534846422115  0.2524049230411227  0.9648376306548252  1.0000
  H   H12       1.0  0.14558565171935006  0.28804608229688355  0.9380996208828958  1.0000
  H   H13       1.0  0.2956615171288471  0.1656801002534422  0.0082411616110839  1.0000
  H   H14       1.0  0.05790841909594726  0.20247298528254812  0.981926378952442  1.0000
  H   H15       1.0  0.6206287268091051  0.7451064043275777  0.9609201476852017  1.0000
  H   H16       1.0  0.86852116024705  0.7255406633037247  0.9391345220793044  1.0000
  H   H17       1.0  0.707946812080516  0.8353591409222959  0.0042110618189596  1.0000
  H   H18       1.0  0.9547279694207044  0.8151127384627493  0.9826892541610404  1.0000
  H   H19       1.0  0.8630339228692747  0.724089879385493  0.850387723678503  1.0000
  H   H20       1.0  0.6115402285781442  0.7463730424915486  0.8304934179253447  1.0000
  H   H21       1.0  0.9405196613331311  0.8165781238984942  0.8062508675450928  1.0000
  H   H22       1.0  0.6920670287192917  0.8435866586869495  0.7873003203369309  1.0000
  H   H23       1.0  0.0069856810204764405  0.5706937515408449  0.30210697760426725  1.0000
  H   H24       1.0  0.9975466383901039  0.413325117317871  0.30144784225152127  1.0000
  H   H25       1.0  0.9901516939721025  0.20667153336386918  0.22897845872034872  1.0000
  H   H26       1.0  0.006436154896069337  0.4353409557645625  0.15842137072234083  1.0000
  H   H27       1.0  0.013675482178816688  0.5918138271059815  0.1590113538277036  1.0000
  H   H28       1.0  0.023983179302187456  0.7998095490774433  0.23144041433050241  1.0000
  H   H29       1.0  0.8769710804692796  0.608037276332671  0.2976092742922209  1.0000
  H   H30       1.0  0.1467562602039817  0.8604597509341327  0.2738668986380252  1.0000
  H   H31       1.0  0.8747101518265736  0.6928931045963552  0.3405382732391268  1.0000
  H   H32       1.0  0.1440761058861809  0.9439975342802921  0.31709131541021074  1.0000
  H   H33       1.0  0.15742037699067157  0.8690634893535748  0.18849680791208934  1.0000
  H   H34       1.0  0.877913881766377  0.6306292529484793  0.16439353563085604  1.0000
  H   H35       1.0  0.15752960622953144  0.9610777097986835  0.14526626780973712  1.0000
  H   H36       1.0  0.8768165692705305  0.7250113248287309  0.12176225837171312  1.0000
  H   H37       1.0  0.8714180440565688  0.15010314095020305  0.18103702168138056  1.0000
  H   H38       1.0  0.1502492859855614  0.4062427987322689  0.16822150791331572  1.0000
  H   H39       1.0  0.8915019383724745  0.07952999094416159  0.13741829649360562  1.0000
  H   H40       1.0  0.17176058342607556  0.3325779458546112  0.1255575504767605  1.0000
  H   H41       1.0  0.13443720031183198  0.37544367690023955  0.2957082672101842  1.0000
  H   H42       1.0  0.8536449373450196  0.13739854041220778  0.2723367139295951  1.0000
  H   H43       1.0  0.13483941076194927  0.28303832365256093  0.3388304846269198  1.0000
  H   H44       1.0  0.854013659050872  0.046245445711611495  0.31595707318697913  1.0000
  H   H45       1.0  0.44984763676703216  0.010136714712489298  0.6345078818152963  1.0000
  H   H46       1.0  0.595825202280249  0.998642982203553  0.6337909546270493  1.0000
  H   H47       1.0  0.7926347623885723  0.9892906258664633  0.5612147960628289  1.0000
  H   H48       1.0  0.582460885936831  0.008473896714326594  0.4906717703589188  1.0000
  H   H49       1.0  0.4349800507904602  0.017634941930719798  0.4913725498200149  1.0000
  H   H50       1.0  0.23931685915833428  0.028778515085064793  0.5639107910774286  1.0000
  H   H51       1.0  0.27872654392426843  0.8800183866046545  0.6309334729097568  1.0000
  H   H52       1.0  0.3073118010683091  0.1542112614932992  0.605658079790994  1.0000
  H   H53       1.0  0.19104104592356783  0.876997396823102  0.6737906133953274  1.0000
  H   H54       1.0  0.22025281900333019  0.15061157757522717  0.6487777500264177  1.0000
  H   H55       1.0  0.30323735198735813  0.15947043269814795  0.5184578439731601  1.0000
  H   H56       1.0  0.25803724608854484  0.8776988532835747  0.49945436019360173  1.0000
  H   H57       1.0  0.2088181720270112  0.15436803183944686  0.47533310091160613  1.0000
  H   H58       1.0  0.1598732033393938  0.871303892551043  0.4569647490101117  1.0000
  H   H59       1.0  0.7255952544549797  0.8680057373075053  0.5155817637751792  1.0000
  H   H60       1.0  0.7574237565083174  0.14831907096680136  0.4978368322535082  1.0000
  H   H61       1.0  0.8153887930288726  0.8834531944284764  0.47191776318372486  1.0000
  H   H62       1.0  0.8512338614356045  0.1649999597077466  0.4550322057131512  1.0000
  H   H63       1.0  0.7690213432418778  0.13362542763864518  0.627506692300555  1.0000
  H   H64       1.0  0.7288522535089346  0.8564647810646159  0.6051051604735735  1.0000
  H   H65       1.0  0.8619019455782824  0.13383600843050328  0.6704269214725325  1.0000
  H   H66       1.0  0.8205864735844483  0.8565834672634888  0.6485050491288543  1.0000
  C   C1        1.0  0.11759410012573189  0.12704579684028658  0.023343512404658803  1.0000
  C   C2        1.0  0.8892544930633833  0.8854897553030695  0.021350058054874502  1.0000
  C   C3        1.0  0.04910573139894058  0.15764706716294727  0.10388442797880561  1.0000
  C   C4        1.0  0.014832827463696418  0.9033421090988064  0.10542179005598401  1.0000
  C   C5        1.0  0.9942616540830094  0.10356940708286609  0.35544134821129386  1.0000
  C   C6        1.0  0.007478832220966493  0.8758063177734328  0.35619424289871443  1.0000
  C   C7        1.0  0.8989573880019929  0.03890270155375559  0.43588320740944153  1.0000
  C   C8        1.0  0.1196923358817231  0.006945109184089497  0.43828649941654696  1.0000
  C   C9        1.0  0.8683675600224142  0.8965702052254374  0.7686096823448619  1.0000
  C   C10       1.0  0.1221022293580302  0.11568669448857397  0.7703249824793044  1.0000
  C   C11       1.0  0.9024750198088688  0.9949563492573607  0.6874681916401525  1.0000
  C   C12       1.0  0.1448812069394813  0.0103061629476722  0.6884742711967647  1.0000
  C   C13       1.0  0.550558122381864  0.5441157119705161  0.8959453553278065  1.0000
  C   C14       1.0  0.45921877240149045  0.4552018489340375  0.8962436243125635  1.0000
  C   C15       1.0  0.4127558277148521  0.4102068426518785  0.8703130876695753  1.0000
  C   C16       1.0  0.45987529441897895  0.4556924542508593  0.8445595000275962  1.0000
  C   C17       1.0  0.5470394978346927  0.5404243970261025  0.8442937255462164  1.0000
  C   C18       1.0  0.5950591994518819  0.588030021994027  0.8697390037915095  1.0000
  C   C19       1.0  0.3205536372761529  0.3241448214176351  0.8709062699511526  1.0000
  C   C20       1.0  0.6858436286263654  0.6758011658469382  0.8697635592969772  1.0000
  C   C21       1.0  0.5970109536168187  0.5892568686105478  0.9218505104700131  1.0000
  C   C22       1.0  0.414080326319973  0.41196713013055686  0.9224504648611056  1.0000
  C   C23       1.0  0.7313141339297481  0.7164112419990514  0.8953656576206434  1.0000
  C   C24       1.0  0.6881856063663414  0.6765745771995925  0.9212277557188407  1.0000
  C   C25       1.0  0.5505514715843174  0.5430548433504035  0.947610225818612  1.0000
  C   C26       1.0  0.4628999700648289  0.45893570429864733  0.9478980942045094  1.0000
  C   C27       1.0  0.2762215838058074  0.2856891507498009  0.8966911282031436  1.0000
  C   C28       1.0  0.3216817063393904  0.326105842800667  0.9223401186722153  1.0000
  C   C29       1.0  0.27042228717650246  0.2725884873674315  0.8448293727077673  1.0000
  C   C30       1.0  0.17847333408166657  0.25757571094133835  0.8374297985430036  1.0000
  C   C31       1.0  0.3126376564216148  0.2353096609267655  0.8273924418592262  1.0000
  C   C32       1.0  0.13096295444816358  0.20844259021318634  0.8130452432176585  1.0000
  C   C33       1.0  0.2643341096284367  0.18417635088831377  0.8034003621168477  1.0000
  C   C34       1.0  0.1733319281690965  0.171129338286389  0.7958708172354523  1.0000
  C   C35       1.0  0.27142695279312173  0.277071302588545  0.9486593746358023  1.0000
  C   C36       1.0  0.3134283313964459  0.24269089084631318  0.9687500836438923  1.0000
  C   C37       1.0  0.1786208051741177  0.2615159211739017  0.9535606476823861  1.0000
  C   C38       1.0  0.26416477249476605  0.19446947161804157  0.9930207212572291  1.0000
  C   C39       1.0  0.1296693892698995  0.2143362866403898  0.9779510495935323  1.0000
  C   C40       1.0  0.17221072826546588  0.18057018210454054  0.9979187813591868  1.0000
  C   C41       1.0  0.738379200517664  0.7283618936797887  0.9472288037959921  1.0000
  C   C42       1.0  0.6935486965843219  0.7595398629796476  0.9658211541433516  1.0000
  C   C43       1.0  0.8332561379186438  0.7495461013242714  0.9534124075712084  1.0000
  C   C44       1.0  0.7418069258948204  0.8098857189927108  0.9899391128037786  1.0000
  C   C45       1.0  0.8814066781710775  0.7990143195860745  0.9776599234990998  1.0000
  C   C46       1.0  0.8359734383244046  0.829481534898899  0.996096683024253  1.0000
  C   C47       1.0  0.7318278903478317  0.7284395724584707  0.8433330738332262  1.0000
  C   C48       1.0  0.8251366953920765  0.7496072932478424  0.8364224248177459  1.0000
  C   C49       1.0  0.6836661362551064  0.76168307863832  0.8251620821946097  1.0000
  C   C50       1.0  0.8687002106948167  0.8012784729618811  0.8118564382251071  1.0000
  C   C51       1.0  0.7281479881156283  0.8156814330806332  0.8010857636291981  1.0000
  C   C52       1.0  0.8207566572552449  0.8354084367700123  0.7941151283081652  1.0000
  C   C53       1.0  0.003631431277578874  0.45697675165655144  0.2300575868257248  1.0000
  C   C54       1.0  0.007006100540584779  0.5481306692280888  0.23042684860876822  1.0000
  C   C55       1.0  0.007580902243131676  0.5898243988494986  0.2566866231880685  1.0000
  C   C56       1.0  0.0050399936628726235  0.5385385350257343  0.28209417358266814  1.0000
  C   C57       1.0  0.000725050592921263  0.4510839583289367  0.28172729444342487  1.0000
  C   C58       1.0  0.0001653396803880847  0.4073025989549026  0.2559144262137554  1.0000
  C   C59       1.0  0.01367308928337208  0.681492198463125  0.256726863393077  1.0000
  C   C60       1.0  0.9944230852067893  0.3159716902909238  0.255140926946092  1.0000
  C   C61       1.0  0.004307163327432284  0.41581360121709937  0.20384064736414484  1.0000
  C   C62       1.0  0.010634851679467138  0.5977381813102951  0.2045242042225575  1.0000
  C   C63       1.0  0.9923310941708249  0.27599406289897377  0.22923873612445836  1.0000
  C   C64       1.0  0.00019802902524760797  0.3251007564928384  0.20376936593308623  1.0000
  C   C65       1.0  0.0071509563354951455  0.46707779264974547  0.1784124914336312  1.0000
  C   C66       1.0  0.010471630231406319  0.5540771690047016  0.17874217792877592  1.0000
  C   C67       1.0  0.02054300425210485  0.7298912629336822  0.23116721136157012  1.0000
  C   C68       1.0  0.017088154981026445  0.6894508991393805  0.20526057930476332  1.0000
  C   C69       1.0  0.012511296586145837  0.7282998499418134  0.2829217681001406  1.0000
  C   C70       1.0  0.9362514490909086  0.6812789412974394  0.30202725162431465  1.0000
  C   C71       1.0  0.08715837851752635  0.8236047221569778  0.2885169198902665  1.0000
  C   C72       1.0  0.9345270929342959  0.7282480026947694  0.3259496555869922  1.0000
  C   C73       1.0  0.08627999645732597  0.8702938545469868  0.31255991838853703  1.0000
  C   C74       1.0  0.009779500504927633  0.8229900658701876  0.33140712034241465  1.0000
  C   C75       1.0  0.018038585217648125  0.7432694085662699  0.17926241646554023  1.0000
  C   C76       1.0  0.0961365951548062  0.8371557004112945  0.17375409576076592  1.0000
  C   C77       1.0  0.9394485374225349  0.7029584224277102  0.16010666493706602  1.0000
  C   C78       1.0  0.09643584495473204  0.8886193173141759  0.14959430634203572  1.0000
  C   C79       1.0  0.9384924768575824  0.7551097084435439  0.13632879083778332  1.0000
  C   C80       1.0  0.017471929884514688  0.8482164206623748  0.13075044868337513  1.0000
  C   C81       1.0  0.009298417973866572  0.28314601868498257  0.17751748171588794  1.0000
  C   C82       1.0  0.9370715305305015  0.19054863212983317  0.1687633044966235  1.0000
  C   C83       1.0  0.09342675845344688  0.33457701691209646  0.16144905064538523  1.0000
  C   C84       1.0  0.9479874779392935  0.15084564435822218  0.14446233264075142  1.0000
  C   C85       1.0  0.10563732898366687  0.2939223403526988  0.137660223384834  1.0000
  C   C86       1.0  0.03281689122032428  0.20185716886257457  0.12887106644988572  1.0000
  C   C87       1.0  0.9936161897313904  0.2628004956799342  0.2812395581287567  1.0000
  C   C88       1.0  0.07249860558462595  0.3036661900021324  0.30029511228495115  1.0000
  C   C89       1.0  0.9151145300009319  0.16942756494134079  0.28700824031613154  1.0000
  C   C90       1.0  0.07273910994197628  0.25253515812251986  0.3244124962103868  1.0000
  C   C91       1.0  0.9147490325935835  0.11855251846022422  0.3112753687259125  1.0000
  C   C92       1.0  0.9936258720901877  0.15983465495643365  0.33017415279779855  1.0000
  C   C93       1.0  0.5591127046919492  0.006430778542750397  0.5623763464299579  1.0000
  C   C94       1.0  0.4723636445946622  0.010944453787641096  0.5628110221374925  1.0000
  C   C95       1.0  0.4317602594555781  0.0119318869912771  0.589094735677391  1.0000
  C   C96       1.0  0.4798325946191361  0.008319290299138892  0.614477628798641  1.0000
  C   C97       1.0  0.561913122216937  0.0028450724375251946  0.6140676763877086  1.0000
  C   C98       1.0  0.6048235947104516  0.0022462347218649963  0.5882373291522299  1.0000
  C   C99       1.0  0.3471290230643244  0.018809224968886692  0.5891830589655922  1.0000
  C   C100      1.0  0.6894368482257672  0.9954819630094905  0.5874816571058515  1.0000
  C   C101      1.0  0.600073387458597  0.006199856147583398  0.5360965022008377  1.0000
  C   C102      1.0  0.426458476234181  0.01462499971739989  0.5369331163832487  1.0000
  C   C103      1.0  0.7263068207139107  0.9924229082954519  0.5615404558492553  1.0000
  C   C104      1.0  0.6852929840161524  0.0003263342303002995  0.5360057963455805  1.0000
  C   C105      1.0  0.5520589416312071  0.009743561843309498  0.5106834535902117  1.0000
  C   C106      1.0  0.46938126472864644  0.014158656062704196  0.511085144425858  1.0000
  C   C107      1.0  0.30548750340577346  0.02535905619739049  0.5635985721220871  1.0000
  C   C108      1.0  0.3415636476299527  0.020888956345970298  0.5377069843513463  1.0000
  C   C109      1.0  0.2995725458270986  0.017760107022695693  0.6154633449654082  1.0000
  C   C110      1.0  0.2671751052115653  0.9401029803796778  0.6350069958534417  1.0000
  C   C111      1.0  0.282068837014582  0.0935231347892333  0.6206450253620857  1.0000
  C   C112      1.0  0.21818079998685055  0.9379432300587989  0.6588882294115407  1.0000
  C   C113      1.0  0.2340337969102196  0.09212175958830619  0.6446351320956119  1.0000
  C   C114      1.0  0.20133502263794473  0.014028367156577995  0.6638592945980905  1.0000
  C   C115      1.0  0.2875647985322115  0.0192567398832779  0.5117486226875793  1.0000
  C   C116      1.0  0.2723765490084232  0.0965707985849063  0.5048514344473188  1.0000
  C   C117      1.0  0.24747691353646234  0.9384981125297146  0.49406316288931107  1.0000
  C   C118      1.0  0.2198431130109769  0.0939380426591658  0.4807533463254647  1.0000
  C   C119      1.0  0.19301173662545493  0.9346513449959193  0.4703726387370397  1.0000
  C   C120      1.0  0.1793034335939082  0.012776608992315292  0.4634180859938214  1.0000
  C   C121      1.0  0.7350907938948357  0.0069194467833044995  0.5096179314428891  1.0000
  C   C122      1.0  0.7525124589023159  0.9328987447343065  0.5021809511492487  1.0000
  C   C123      1.0  0.7698572027851612  0.09005838725123677  0.49211093181973714  1.0000
  C   C124      1.0  0.8025969045014268  0.9411967702487521  0.47786730723035453  1.0000
  C   C125      1.0  0.821993270203261  0.09961192389591889  0.46825027045509693  1.0000
  C   C126      1.0  0.8385905444557438  0.02513835208106499  0.460862160000499  1.0000
  C   C127      1.0  0.7418793947327506  0.9945413845198905  0.613509161275726  1.0000
  C   C128      1.0  0.7792584181384201  0.07226239412438437  0.632274297960027  1.0000
  C   C129      1.0  0.7577726953929533  0.9171261050991104  0.619512718497197  1.0000
  C   C130      1.0  0.8307991719344074  0.07242451104122037  0.6562921478519737  1.0000
  C   C131      1.0  0.8084464334207506  0.9166260097626009  0.6436782129203615  1.0000
  C   C132      1.0  0.8453818812758795  0.9943755926819832  0.662282266612952  1.0000
  O   O1        1.0  0.9722586841941269  0.08475538386061109  0.092976229179608  1.0000
  O   O2        1.0  0.09227444578085899  0.9793531233493461  0.09678151196709842  1.0000
  O   O3        1.0  0.1535199274173196  0.09171036294906179  0.04125806368302741  1.0000
  O   O4        1.0  0.8515661709427463  0.9211547212587491  0.0369355418386057  1.0000
  O   O5        1.0  0.03292632103237229  0.11364726229799577  0.026608298022220003  1.0000
  O   O6        1.0  0.9745350963349247  0.9002036303645554  0.0268013261506314  1.0000
  O   O7        1.0  0.1339046852032678  0.19087811535288618  0.09538288024121121  1.0000
  O   O8        1.0  0.934272913860266  0.8750518786674771  0.09254537469120822  1.0000
  O   O9        1.0  0.8935130096531505  0.9608265963689449  0.4265386374190235  1.0000
  O   O10       1.0  0.12166640533427749  0.08361189485168138  0.4283175416447727  1.0000
  O   O11       1.0  0.06736884783268789  0.13985740914489758  0.37252470608064486  1.0000
  O   O12       1.0  0.9336595197563199  0.8379362750843228  0.3721304358467822  1.0000
  O   O13       1.0  0.9229096404541648  0.017824470397846896  0.3595484390146881  1.0000
  O   O14       1.0  0.07937096191528527  0.9616627186077772  0.3607361198984248  1.0000
  O   O15       1.0  0.9521108378173595  0.12313710611490748  0.42590960289272467  1.0000
  O   O16       1.0  0.0654459244231469  0.9248584501168132  0.42692236504561965  1.0000
  O   O17       1.0  0.9399009878057323  0.06772789584985428  0.704053653613606  1.0000
  O   O18       1.0  0.10682019065011293  0.9352721485640659  0.7048005104702394  1.0000
  O   O19       1.0  0.9409565424121418  0.8918142906589229  0.7592819255603941  1.0000
  O   O20       1.0  0.04899692681541969  0.11917873842262679  0.7599206642804566  1.0000
  O   O21       1.0  0.8378730699398553  0.9494596735938978  0.7581679273985276  1.0000
  O   O22       1.0  0.1503233060886802  0.0631556682267442  0.7591008228953654  1.0000
  O   O23       1.0  0.9162876134095967  0.9238104421355448  0.691992678866932  1.0000
  O   O24       1.0  0.1318528202486292  0.0819871567563729  0.6924864053650817  1.0000
  Na  Na1       1.0  0.2147402211115746  0.12132298970399129  0.08417788014489251  1.0000
  Na  Na2       1.0  0.10391886498211568  0.20547355457216906  0.41418978309419874  1.0000
  Na  Na3       1.0  0.910128790223593  0.10239364866514168  0.7455058595218391  1.0000
