data_image0
_publ_author   Andrea Dar√π
_publ_DOI   10.1002/adma.202414617
_chemical_formula_structural       In2H44C88O16Na2
_chemical_formula_sum              "In2 H44 C88 O16 Na2"
_cell_length_a       15.794931871506003
_cell_length_b       15.746019574701894
_cell_length_c       31.91073529873854
_cell_angle_alpha    92.79105602447653
_cell_angle_beta     90.2847790520483
_cell_angle_gamma    89.38560536076109

_space_group_name_H-M_alt    "P 1"
_space_group_IT_number       1

loop_
  _space_group_symop_operation_xyz
  'x, y, z'

loop_
  _atom_site_type_symbol
  _atom_site_label
  _atom_site_symmetry_multiplicity
  _atom_site_fract_x
  _atom_site_fract_y
  _atom_site_fract_z
  _atom_site_occupancy
  In  In1       1.0  0.07117835111508003  0.05391830965905801  0.7631517405305158  1.0000
  In  In2       1.0  0.07077882080469501  0.9970157047168634  0.2618210501419931  1.0000
  H   H1        1.0  0.49091184208429417  0.026487296487690107  0.9037357981539055  1.0000
  H   H2        1.0  0.644783740008492  0.035130924750279215  0.9017580843814392  1.0000
  H   H3        1.0  0.8668509974345959  0.037363248805890696  0.005443456389064301  1.0000
  H   H4        1.0  0.659994438026766  0.026106519819875905  0.11492369116239023  1.0000
  H   H5        1.0  0.5051936478294874  0.0280233548076758  0.11714853337782871  1.0000
  H   H6        1.0  0.2834601955923705  0.0240428071089404  0.013849568834965404  1.0000
  H   H7        1.0  0.3899200582500821  0.1426486317507091  0.9139572250184578  1.0000
  H   H8        1.0  0.2740594474559867  0.9099852529429934  0.948444850094103  1.0000
  H   H9        1.0  0.30041469978788343  0.14231806505127892  0.8494190288008935  1.0000
  H   H10       1.0  0.1838895352206747  0.9107097816251066  0.8838139600964907  1.0000
  H   H11       1.0  0.2908931392589488  0.9137112790263964  0.08160437685564641  1.0000
  H   H12       1.0  0.3995297084632316  0.1601232301761825  0.10836309219331902  1.0000
  H   H13       1.0  0.2090885027390936  0.9285867352978188  0.14847478922155852  1.0000
  H   H14       1.0  0.313254298738637  0.17642344474877572  0.17382563073558213  1.0000
  H   H15       1.0  0.8749111634567558  0.1406030603089221  0.07237101003840841  1.0000
  H   H16       1.0  0.7626549664137183  0.9029982357951316  0.10201685119559172  1.0000
  H   H17       1.0  0.9643226893353889  0.13622345790600682  0.13685245157144424  1.0000
  H   H18       1.0  0.854641905117219  0.897768529152926  0.1657569978066143  1.0000
  H   H19       1.0  0.7542985331934887  0.9303627969526762  0.8979232055156127  1.0000
  H   H20       1.0  0.8602325534729134  0.16175921477830782  0.9520487550174299  1.0000
  H   H21       1.0  0.8393968550619431  0.9470121208218151  0.8331441413237077  1.0000
  H   H22       1.0  0.9465574349303736  0.17647529205808482  0.8873947337594295  1.0000
  H   H23       1.0  0.09597777109181552  0.5909959778373428  0.40185695724558246  1.0000
  H   H24       1.0  0.10459705855111301  0.4364538112503539  0.40235805854625534  1.0000
  H   H25       1.0  0.11112160772279171  0.2331494430476997  0.5102109263132136  1.0000
  H   H26       1.0  0.11595925834101252  0.46054641640552496  0.6160446603475592  1.0000
  H   H27       1.0  0.11767143536876161  0.615798843960469  0.615354261769804  1.0000
  H   H28       1.0  0.09714441829513991  0.8187605180421803  0.5081871786387119  1.0000
  H   H29       1.0  0.20247676835193934  0.6985877859120194  0.40241143060891293  1.0000
  H   H30       1.0  0.9702957718304912  0.8101272278227953  0.4505023430717964  1.0000
  H   H31       1.0  0.18298203352086964  0.775927443642209  0.33643689134125254  1.0000
  H   H32       1.0  0.9525947361865768  0.8886159594115514  0.38466550056479487  1.0000
  H   H33       1.0  0.9961454711539551  0.8252431207856886  0.5800390390591065  1.0000
  H   H34       1.0  0.24411309365958742  0.7183155507477768  0.6002308259390744  1.0000
  H   H35       1.0  0.010088162150211102  0.9137148052736015  0.6467844938552723  1.0000
  H   H36       1.0  0.2591595666702956  0.8106653360516358  0.6657607143551391  1.0000
  H   H37       1.0  0.22216914437478122  0.23286718029551742  0.5736446884480065  1.0000
  H   H38       1.0  0.9894065353723807  0.3606829109323829  0.6094961580777023  1.0000
  H   H39       1.0  0.2171555730221514  0.151398283362175  0.638621099264125  1.0000
  H   H40       1.0  0.9829577789451318  0.2759820042711891  0.673518687821553  1.0000
  H   H41       1.0  0.9897790577422542  0.3379237550268246  0.40890489648558326  1.0000
  H   H42       1.0  0.22092696629896033  0.21714207372843644  0.44803925876948647  1.0000
  H   H43       1.0  0.9859644873262108  0.24064122996906032  0.3449444060925341  1.0000
  H   H44       1.0  0.21625238435346691  0.11962930141821203  0.38378653003672664  1.0000
  C   C1        1.0  0.6206261944097383  0.028274438654036605  0.008686633339193901  1.0000
  C   C2        1.0  0.5300165325355519  0.028097183887967805  0.009988318091826102  1.0000
  C   C3        1.0  0.48193784092237224  0.027760237436427908  0.9717988952211036  1.0000
  C   C4        1.0  0.5267503729308628  0.028455451876834317  0.9329848817850914  1.0000
  C   C5        1.0  0.6129939824616147  0.03214817803124352  0.9318288233286489  1.0000
  C   C6        1.0  0.6631175242760964  0.03182222497040241  0.969258935487586  1.0000
  C   C7        1.0  0.3922524378024858  0.025078579561890007  0.9736538945916406  1.0000
  C   C8        1.0  0.7527267995872516  0.03708239100490961  0.9686275150721602  1.0000
  C   C9        1.0  0.6685450172641486  0.02627701942717371  0.046879105230480916  1.0000
  C   C10       1.0  0.4875790728110024  0.0287739413585842  0.04954776075379181  1.0000
  C   C11       1.0  0.7978284858349968  0.035630468120077  0.006413327897182102  1.0000
  C   C12       1.0  0.7582326952005785  0.027709225600916605  0.045090645614826015  1.0000
  C   C13       1.0  0.6238617567426363  0.026397468303674808  0.08576913374618252  1.0000
  C   C14       1.0  0.5374584657635649  0.0279669203185109  0.08705615230112042  1.0000
  C   C15       1.0  0.3525132689740923  0.023881949949233004  0.01272142497615  1.0000
  C   C16       1.0  0.39786553212906123  0.0284991213280451  0.05045868030373551  1.0000
  C   C17       1.0  0.33927936676816567  0.02542427534036281  0.9352352394394741  1.0000
  C   C18       1.0  0.34597234599374194  0.09086348290590301  0.9069735793916496  1.0000
  C   C19       1.0  0.2798423087767662  0.960923899744863  0.9266818321017783  1.0000
  C   C20       1.0  0.29626223086481024  0.09082931334157361  0.8709074371748603  1.0000
  C   C21       1.0  0.22985747635983383  0.9606929355768367  0.890630000672355  1.0000
  C   C22       1.0  0.23829135738309162  0.025294459888599612  0.8622566822305697  1.0000
  C   C23       1.0  0.3506418498463619  0.0359397730806556  0.09052353235672041  1.0000
  C   C24       1.0  0.29621120163912074  0.9711640957141006  0.10194839191678731  1.0000
  C   C25       1.0  0.3575100800210024  0.10944023103721041  0.11712729800109262  1.0000
  C   C26       1.0  0.2504070547407184  0.9792284344640168  0.13912970592732682  1.0000
  C   C27       1.0  0.3098148568939552  0.118662343711387  0.15364730794793002  1.0000
  C   C28       1.0  0.256178089107548  0.0534342449680364  0.16503175991220742  1.0000
  C   C29       1.0  0.8116110088556767  0.022892472758294903  0.08318084800608641  1.0000
  C   C30       1.0  0.8702253766715018  0.087485600229595  0.09292485234540182  1.0000
  C   C31       1.0  0.8066092921479435  0.954416380134584  0.10977687300600601  1.0000
  C   C32       1.0  0.9199434773811883  0.08541163797383829  0.12891144885740644  1.0000
  C   C33       1.0  0.8577859773916757  0.9511693238877764  0.1453489044196735  1.0000
  C   C34       1.0  0.9138723333234453  0.017532569555088005  0.15555841091908743  1.0000
  C   C35       1.0  0.8007558001725916  0.04552889559812161  0.929298517737595  1.0000
  C   C36       1.0  0.7949481154659304  0.9854090488730004  0.8953629539478264  1.0000
  C   C37       1.0  0.8557414821967453  0.1145328196779536  0.9259740477092119  1.0000
  C   C38       1.0  0.8423731731435476  0.9942263065929681  0.8592239388813994  1.0000
  C   C39       1.0  0.9034083333553599  0.12345011701468181  0.8899346243658949  1.0000
  C   C40       1.0  0.897013088819019  0.06328123109422262  0.8562672984170338  1.0000
  C   C41       1.0  0.1075022670805884  0.48047036749620686  0.5090844853560016  1.0000
  C   C42       1.0  0.1073618668555075  0.5713985854179554  0.5087016185670178  1.0000
  C   C43       1.0  0.10194471524577571  0.612450831606234  0.46968380836727336  1.0000
  C   C44       1.0  0.10007622752776152  0.5604250120969203  0.4316774173005542  1.0000
  C   C45       1.0  0.10376926061085051  0.47381148743933066  0.431975995622246  1.0000
  C   C46       1.0  0.10594863908866631  0.43053177092916267  0.47034673772215474  1.0000
  C   C47       1.0  0.0964668145321356  0.7025106387335943  0.47000931665181594  1.0000
  C   C48       1.0  0.1084631467138966  0.34055595814351275  0.47124990348918183  1.0000
  C   C49       1.0  0.10921959766831461  0.43966532781921686  0.5482392626019039  1.0000
  C   C50       1.0  0.1116635209345372  0.6211295145021586  0.5474167937748359  1.0000
  C   C51       1.0  0.11153014463001441  0.3024279393433667  0.5099056174892391  1.0000
  C   C52       1.0  0.10939416891253011  0.3495863864828538  0.5481436156290342  1.0000
  C   C53       1.0  0.11336767818816101  0.4914302120072003  0.5862513535608771  1.0000
  C   C54       1.0  0.11487675985888832  0.5780689618947648  0.5858561557795946  1.0000
  C   C55       1.0  0.09935791063834902  0.7494765657665189  0.5083620026636806  1.0000
  C   C56       1.0  0.10974095021181832  0.7111437757927349  0.5466832361147332  1.0000
  C   C57       1.0  0.0869067673669043  0.7481355597211203  0.4306958803728064  1.0000
  C   C58       1.0  0.146757126098355  0.7388805790331415  0.39823501385545335  1.0000
  C   C59       1.0  0.017031090702057102  0.802721990961514  0.42549081967977254  1.0000
  C   C60       1.0  0.1362995926464571  0.7818377643139741  0.36146293996009105  1.0000
  C   C61       1.0  0.006444356351605502  0.8459591168365636  0.38878768460558494  1.0000
  C   C62       1.0  0.0658267939536288  0.8353673956318836  0.3564269675992648  1.0000
  C   C63       1.0  0.11881355230849071  0.765213024671928  0.5857930100980587  1.0000
  C   C64       1.0  0.05380853929356431  0.8217916169532441  0.5988881509427503  1.0000
  C   C65       1.0  0.19285604100345932  0.7614490128295255  0.6103533418696687  1.0000
  C   C66       1.0  0.0613269502283217  0.8713011052712379  0.6360691294401563  1.0000
  C   C67       1.0  0.20145524032179832  0.8126076193749235  0.6469249040527107  1.0000
  C   C68       1.0  0.13527829383016443  0.8671763544816782  0.6603997586858257  1.0000
  C   C69       1.0  0.1066368566930781  0.3030626529772498  0.587347932067091  1.0000
  C   C70       1.0  0.1700577344030065  0.24288603843422849  0.5957132140570043  1.0000
  C   C71       1.0  0.0396517391932575  0.31506075244055554  0.6160114195839276  1.0000
  C   C72       1.0  0.1675643550456678  0.1975088168245398  0.6319603246425579  1.0000
  C   C73       1.0  0.0357774735349985  0.26800253455430006  0.6517801960769251  1.0000
  C   C74       1.0  0.10035194853194862  0.20942030725826372  0.6602534114751661  1.0000
  C   C75       1.0  0.10640286648508382  0.28501208386871857  0.43251636261881693  1.0000
  C   C76       1.0  0.04041027456260551  0.2913097513438336  0.403028108509108  1.0000
  C   C77       1.0  0.16950984513581882  0.2223422201574657  0.42532358413919874  1.0000
  C   C78       1.0  0.0381274583090619  0.2372380237230694  0.3673038311018566  1.0000
  C   C79       1.0  0.16752161767310192  0.16825770702971546  0.38956271723841174  1.0000
  C   C80       1.0  0.10195200804342441  0.1756783228058019  0.36016354555812513  1.0000
  C   C81       1.0  0.1444819910663575  0.9218761915772972  0.6999222699156508  1.0000
  C   C82       1.0  0.18415043540973644  0.02608281931661851  0.8241703791840234  1.0000
  C   C83       1.0  0.09861816500113992  0.15838886633278323  0.6982344656414137  1.0000
  C   C84       1.0  0.952599671787715  0.068701530517935  0.8191237522655013  1.0000
  C   C85       1.0  0.09868856258035691  0.1165686063464978  0.32267301545249516  1.0000
  C   C86       1.0  0.20237775205400982  0.06464453581809032  0.20343984669778714  1.0000
  C   C87       1.0  0.058002703305684314  0.885506468120424  0.31840162733195193  1.0000
  C   C88       1.0  0.9667738027521721  0.017850362961126305  0.19418000304840102  1.0000
  O   O1        1.0  0.16611800664764953  0.1214108781292672  0.7100067752035268  1.0000
  O   O2        1.0  0.9459278151660582  0.013435296106170001  0.7883748415136556  1.0000
  O   O3        1.0  0.07394655693097651  0.9537069058337638  0.7146337693718341  1.0000
  O   O4        1.0  0.19854711873417902  0.08263897903983321  0.7967088102619372  1.0000
  O   O5        1.0  0.21657304278449802  0.9344609667875716  0.7158126159138245  1.0000
  O   O6        1.0  0.12363871299942991  0.974726915902827  0.8185630153333482  1.0000
  O   O7        1.0  0.028885517509724703  0.15075487582087094  0.7182270576036888  1.0000
  O   O8        1.0  0.010288591779399102  0.1255139421824432  0.8190776765413857  1.0000
  O   O9        1.0  0.11218507788061821  0.8741141340655981  0.28873045161106076  1.0000
  O   O10       1.0  0.003404879775244301  0.0861899652013793  0.20683443875227364  1.0000
  O   O11       1.0  0.04074364037227611  0.1283726529429328  0.2943733100091183  1.0000
  O   O12       1.0  0.1718947281662889  0.9947409894186389  0.21667910627177725  1.0000
  O   O13       1.0  0.1498914732270092  0.054431041691452305  0.3183689090144108  1.0000
  O   O14       1.0  0.1884147425789581  0.1379540550842092  0.21955091181819283  1.0000
  O   O15       1.0  0.00041666095019039925  0.943371178513569  0.31653375098359693  1.0000
  O   O16       1.0  0.9756730636227521  0.9494960615161423  0.21421545297088673  1.0000
  Na  Na1       1.0  0.27238709610146217  0.05553215554233491  0.7374809950448014  1.0000
  Na  Na2       1.0  0.0660778568248447  0.1964417657716074  0.23586251459999796  1.0000
